-------------------------------------------------------
          Amber 12 SANDER                              2012
          -------------------------------------------------------

  [-O]verwriting output

File Assignments:

 Here is the input file:

production with restraint
 &cntrl
   ig=799890,
   irest=1, ntx=5,
   igb=8, gbsa=1,
   cut=9999.0, rgbmax=9998.0,
   ntc=2, ntf=1, tol=0.000001,
   ntt=3, gamma_ln=2.0, temp0=300.0,
   ntb=0, nscm=10000,
   ioutfm=1,
   nstlim=500000, dt=0.002,
   ntpr=5000, ntwx=5000, ntwv=0, ntwr=500000,
   nmropt=1,
 /
 &wt
  type='DUMPFREQ', istep1=5000,
 /
 &wt
  type='END',
 /
DISANG=run_87.disang
DUMPAVE=run_87.dat

--------------------------------------------------------------------------------
   1.  RESOURCE   USE:
--------------------------------------------------------------------------------

 NATOM  =      32 NTYPES =       7 NBONH =      17 MBONA  =      14
 NTHETH =      36 MTHETA =      18 NPHIH =      64 MPHIA  =      45
 NHPARM =       0 NPARM  =       0 NNB   =     152 NRES   =       4
 NBONA  =      14 NTHETA =      18 NPHIA =      45 NUMBND =      11
 NUMANG =      21 NPTRA  =      20 NATYP =       8 NPHB   =       0
 IFBOX  =       0 NMXRS  =      10 IFCAP =       0 NEXTRA =       0
 NCOPY  =       0

 Implicit solvent radii are ArgH and AspGluO modified Bondi2 radii (mbondi3)
 Replacing prmtop screening parameters with GBn2 (igb=8) values

--------------------------------------------------------------------------------
   2.  CONTROL  DATA  FOR  THE  RUN
--------------------------------------------------------------------------------

ACE

General flags:
     imin    =       0, nmropt  =       1

Nature and format of input:
     ntx     =       5, irest   =       1, ntrx    =       1

Nature and format of output:
     ntxo    =       1, ntpr    =    5000, ntrx    =       1, ntwr    =  500000
     iwrap   =       0, ntwx    =    5000, ntwv    =       0, ntwe    =       0
     ioutfm  =       1, ntwprt  =       0, idecomp =       0, rbornstat=      0

Potential function:
     ntf     =       1, ntb     =       0, igb     =       8, nsnb    =      25
     ipol    =       0, gbsa    =       1, iesp    =       0
     dielc   =   1.00000, cut     =9999.00000, intdiel =   1.00000
     saltcon =   0.00000, offset  =   0.19514, surften =   0.00500
     rdt     =   0.00000, rgbmax  =9998.00000  extdiel =  78.50000
     alpb  =        0
     gbalphaH  =   0.78844, gbbetaH   =   0.79870,  gbgammaH  =    0.43733
     gbalphaC  =   0.73376, gbbetaC   =   0.50638,  gbgammaC  =    0.20584
     gbalphaN  =   0.50336, gbbetaN   =   0.31683,  gbgammaN  =    0.19292
     gbalphaOS =   0.86781, gbbetaOS  =   0.87664,  gbgammaOS =    0.38788
     gbalphaP  =   1.00000, gbbetaP   =   0.80000,  gbgammaP  =    4.85000

Frozen or restrained atoms:
     ibelly  =       0, ntr     =       0

Molecular dynamics:
     nstlim  =    500000, nscm    =     10000, nrespa  =         1
     t       =   0.00000, dt      =   0.00200, vlimit  =  20.00000

Langevin dynamics temperature regulation:
     ig      =  799890
     temp0   = 300.00000, tempi   =   0.00000, gamma_ln=   2.00000

SHAKE:
     ntc     =       2, jfastw  =       0
     tol     =   0.00000

NMR refinement options:
     iscale  =       0, noeskp  =       1, ipnlty  =       1, mxsub   =       1
     scalm   = 100.00000, pencut  =   0.10000, tausw   =   0.10000

--------------------------------------------------------------------------------
   3.  ATOMIC COORDINATES AND VELOCITIES
--------------------------------------------------------------------------------

ACE
 begin time read from input coords =  2000.000 ps

           Begin reading energy term weight changes/NMR restraints
 WEIGHT CHANGES:
 DUMPFREQ   5000      0    0.000000    0.000000      0      0
                         ** No weight changes given **

 RESTRAINTS:
 Requested file redirections:
  DISANG    = run_87.disang
  DUMPAVE   = run_87.dat
 Restraints will be read from file: run_87.disang
Here are comments from the DISANG input file:

                       Number of restraints read =     1

                  Done reading weight changes/NMR restraints

 Number of triangulated 3-point waters found:        0

--------------------------------------------------------------------------------
   4.  RESULTS
 NSTEP =     5000   TIME(PS) =    2010.000  TEMP(K) =   269.87  PRESS =     0.0
 Etot   =        22.0610  EKtot   =        21.1834  EPtot      =         0.8776
 BOND   =         5.2484  ANGLE   =        12.3021  DIHED      =        35.2638
 1-4 NB =         4.2742  1-4 EEL =       118.6887  VDWAALS    =        -3.8567
 EELEC  =      -147.8814  EGB     =       -26.1501  RESTRAINT  =         1.0089
 ESURF=         1.9797
 EAMBER (non-restraint)  =        -0.1313
 ------------------------------------------------------------------------------

      A V E R A G E S   O V E R  500000 S T E P S

 NSTEP =   500000   TIME(PS) =    3000.000  TEMP(K) =   301.14  PRESS =     0.0
 Etot   =        29.5132  EKtot   =        23.6381  EPtot      =         5.8751
 BOND   =         5.4412  ANGLE   =        16.6431  DIHED      =        35.6544
 1-4 NB =         4.7896  1-4 EEL =       116.9719  VDWAALS    =        -3.7741
 EELEC  =      -147.9329  EGB     =       -24.3548  RESTRAINT  =         0.5090
 ESURF=         1.9278
 EAMBER (non-restraint)  =         5.3661
 ------------------------------------------------------------------------------

      R M S  F L U C T U A T I O N S

 NSTEP =   500000   TIME(PS) =    3000.000  TEMP(K) =    48.44  PRESS =     0.0
 Etot   =         5.5226  EKtot   =         3.8022  EPtot      =         3.9413
 BOND   =         1.9924  ANGLE   =         3.4144  DIHED      =         2.3417
 1-4 NB =         0.9590  1-4 EEL =         4.6933  VDWAALS    =         0.8365
 EELEC  =         5.0276  EGB     =         1.8852  RESTRAINT  =         0.6708
 ESURF=         0.0404
 EAMBER (non-restraint)  =         3.2705
 ------------------------------------------------------------------------------
