-------------------------------------------------------
          Amber 12 SANDER                              2012
          -------------------------------------------------------

  [-O]verwriting output

File Assignments:

 Here is the input file:

equilibration with restraint
 &cntrl
   ig=299619,
   irest=1, ntx=5,
   igb=8, gbsa=1,
   cut=9999.0, rgbmax=9998.0,
   ntc=2, ntf=1, tol=0.000001,
   ntt=3, gamma_ln=2.0, tempi=0.1,
   ntb=0, nscm=10000,
   ioutfm=1,
   nstlim=500000, dt=0.002,
   ntpr=5000, ntwx=5000, ntwv=0, ntwr=500000,
   nmropt=1,
 /
 &wt
  type='DUMPFREQ', istep1=5000,
 /
 &wt
  type='END',
 /
DISANG=run_141.disang
DUMPAVE=run_141.dat

--------------------------------------------------------------------------------
   1.  RESOURCE   USE:
--------------------------------------------------------------------------------

 NATOM  =      32 NTYPES =       7 NBONH =      17 MBONA  =      14
 NTHETH =      36 MTHETA =      18 NPHIH =      64 MPHIA  =      45
 NHPARM =       0 NPARM  =       0 NNB   =     152 NRES   =       4
 NBONA  =      14 NTHETA =      18 NPHIA =      45 NUMBND =      11
 NUMANG =      21 NPTRA  =      20 NATYP =       8 NPHB   =       0
 IFBOX  =       0 NMXRS  =      10 IFCAP =       0 NEXTRA =       0
 NCOPY  =       0

 Implicit solvent radii are ArgH and AspGluO modified Bondi2 radii (mbondi3)
 Replacing prmtop screening parameters with GBn2 (igb=8) values

--------------------------------------------------------------------------------
   2.  CONTROL  DATA  FOR  THE  RUN
--------------------------------------------------------------------------------

ACE

General flags:
     imin    =       0, nmropt  =       1

Nature and format of input:
     ntx     =       5, irest   =       1, ntrx    =       1

Nature and format of output:
     ntxo    =       1, ntpr    =    5000, ntrx    =       1, ntwr    =  500000
     iwrap   =       0, ntwx    =    5000, ntwv    =       0, ntwe    =       0
     ioutfm  =       1, ntwprt  =       0, idecomp =       0, rbornstat=      0

Potential function:
     ntf     =       1, ntb     =       0, igb     =       8, nsnb    =      25
     ipol    =       0, gbsa    =       1, iesp    =       0
     dielc   =   1.00000, cut     =9999.00000, intdiel =   1.00000
     saltcon =   0.00000, offset  =   0.19514, surften =   0.00500
     rdt     =   0.00000, rgbmax  =9998.00000  extdiel =  78.50000
     alpb  =        0
     gbalphaH  =   0.78844, gbbetaH   =   0.79870,  gbgammaH  =    0.43733
     gbalphaC  =   0.73376, gbbetaC   =   0.50638,  gbgammaC  =    0.20584
     gbalphaN  =   0.50336, gbbetaN   =   0.31683,  gbgammaN  =    0.19292
     gbalphaOS =   0.86781, gbbetaOS  =   0.87664,  gbgammaOS =    0.38788
     gbalphaP  =   1.00000, gbbetaP   =   0.80000,  gbgammaP  =    4.85100

Frozen or restrained atoms:
     ibelly  =       0, ntr     =       0

Molecular dynamics:
     nstlim  =    500000, nscm    =     10000, nrespa  =         1
     t       =   0.00000, dt      =   0.00200, vlimit  =  20.00000

Langevin dynamics temperature regulation:
     ig      =  299619
     temp0   = 300.00000, tempi   =   0.10000, gamma_ln=   2.00000

SHAKE:
     ntc     =       2, jfastw  =       0
     tol     =   0.00000

NMR refinement options:
     iscale  =       0, noeskp  =       1, ipnlty  =       1, mxsub   =       1
     scalm   = 100.00000, pencut  =   0.10000, tausw   =   0.10000

--------------------------------------------------------------------------------
   3.  ATOMIC COORDINATES AND VELOCITIES
--------------------------------------------------------------------------------

ACE
 begin time read from input coords =  2000.000 ps

           Begin reading energy term weight changes/NMR restraints
 WEIGHT CHANGES:
 DUMPFREQ   5000      0    0.000000    0.000000      0      0
                         ** No weight changes given **

 RESTRAINTS:
 Requested file redirections:
  DISANG    = run_141.disang
  DUMPAVE   = run_141.dat
 Restraints will be read from file: run_141.disang
Here are comments from the DISANG input file:

                       Number of restraints read =     1

                  Done reading weight changes/NMR restraints

 Number of triangulated 3-point waters found:        0

--------------------------------------------------------------------------------
   4.  RESULTS
 NSTEP =     5000   TIME(PS) =    2010.000  TEMP(K) =   299.07  PRESS =     0.0
 Etot   =        15.8523  EKtot   =        23.4751  EPtot      =        -7.6229
 BOND   =         2.6094  ANGLE   =        15.6805  DIHED      =        24.9931
 1-4 NB =         5.2270  1-4 EEL =       122.1401  VDWAALS    =        -3.3875
 EELEC  =      -154.1341  EGB     =       -22.7555  RESTRAINT  =         0.0100
 ESURF=         1.9942
 EAMBER (non-restraint)  =        -7.6329
 ------------------------------------------------------------------------------

      A V E R A G E S   O V E R  500000 S T E P S

 NSTEP =   500000   TIME(PS) =    3000.000  TEMP(K) =   299.36  PRESS =     0.0
 Etot   =        15.4721  EKtot   =        23.4980  EPtot      =        -8.0259
 BOND   =         5.3162  ANGLE   =        14.0663  DIHED      =        23.6100
 1-4 NB =         4.9496  1-4 EEL =       119.2608  VDWAALS    =        -3.3558
 EELEC  =      -150.5966  EGB     =       -23.7302  RESTRAINT  =         0.4843
 ESURF=         1.9694
 EAMBER (non-restraint)  =        -8.5102
 ------------------------------------------------------------------------------

      R M S  F L U C T U A T I O N S

 NSTEP =   500000   TIME(PS) =    3000.000  TEMP(K) =    47.54  PRESS =     0.0
 Etot   =         5.2488  EKtot   =         3.7313  EPtot      =         3.7420
 BOND   =         1.9429  ANGLE   =         2.9791  DIHED      =         1.6208
 1-4 NB =         0.9480  1-4 EEL =         2.9506  VDWAALS    =         0.6122
 EELEC  =         3.4732  EGB     =         1.6479  RESTRAINT  =         0.6287
 ESURF=         0.0327
 EAMBER (non-restraint)  =         3.1133
 ------------------------------------------------------------------------------
