-------------------------------------------------------
          Amber 12 SANDER                              2012
          -------------------------------------------------------

  [-O]verwriting output

File Assignments:

 Here is the input file:

equilibration with restraint
 &cntrl
   ig=481224,
   irest=1, ntx=5,
   igb=8, gbsa=1,
   cut=9999.0, rgbmax=9998.0,
   ntc=2, ntf=1, tol=0.000001,
   ntt=3, gamma_ln=2.0, tempi=0.1,
   ntb=0, nscm=10000,
   ioutfm=1,
   nstlim=500000, dt=0.002,
   ntpr=50000, ntwx=50000, ntwv=0, ntwr=500000,
   nmropt=1,
 /
 &wt
  type='END',
 /
DISANG=run_174.disang

--------------------------------------------------------------------------------
   1.  RESOURCE   USE:
--------------------------------------------------------------------------------

 NATOM  =      32 NTYPES =       7 NBONH =      17 MBONA  =      14
 NTHETH =      36 MTHETA =      18 NPHIH =      64 MPHIA  =      45
 NHPARM =       0 NPARM  =       0 NNB   =     152 NRES   =       4
 NBONA  =      14 NTHETA =      18 NPHIA =      45 NUMBND =      11
 NUMANG =      21 NPTRA  =      20 NATYP =       8 NPHB   =       0
 IFBOX  =       0 NMXRS  =      10 IFCAP =       0 NEXTRA =       0
 NCOPY  =       0

 Implicit solvent radii are ArgH and AspGluO modified Bondi2 radii (mbondi3)
 Replacing prmtop screening parameters with GBn2 (igb=8) values

--------------------------------------------------------------------------------
   2.  CONTROL  DATA  FOR  THE  RUN
--------------------------------------------------------------------------------

ACE

General flags:
     imin    =       0, nmropt  =       1

Nature and format of input:
     ntx     =       5, irest   =       1, ntrx    =       1

Nature and format of output:
     ntxo    =       1, ntpr    =   50000, ntrx    =       1, ntwr    =  500000
     iwrap   =       0, ntwx    =   50000, ntwv    =       0, ntwe    =       0
     ioutfm  =       1, ntwprt  =       0, idecomp =       0, rbornstat=      0

Potential function:
     ntf     =       1, ntb     =       0, igb     =       8, nsnb    =      25
     ipol    =       0, gbsa    =       1, iesp    =       0
     dielc   =   1.00000, cut     =9999.00000, intdiel =   1.00000
     saltcon =   0.00000, offset  =   0.19514, surften =   0.00500
     rdt     =   0.00000, rgbmax  =9998.00000  extdiel =  78.50000
     alpb  =        0
     gbalphaH  =   0.78844, gbbetaH   =   0.79870,  gbgammaH  =    0.43733
     gbalphaC  =   0.73376, gbbetaC   =   0.50638,  gbgammaC  =    0.20584
     gbalphaN  =   0.50336, gbbetaN   =   0.31683,  gbgammaN  =    0.19292
     gbalphaOS =   0.86781, gbbetaOS  =   0.87664,  gbgammaOS =    0.38788
     gbalphaP  =   1.00000, gbbetaP   =   0.80000,  gbgammaP  =    4.85100

Frozen or restrained atoms:
     ibelly  =       0, ntr     =       0

Molecular dynamics:
     nstlim  =    500000, nscm    =     10000, nrespa  =         1
     t       =   0.00000, dt      =   0.00200, vlimit  =  20.00000

Langevin dynamics temperature regulation:
     ig      =  481224
     temp0   = 300.00000, tempi   =   0.10000, gamma_ln=   2.00000

SHAKE:
     ntc     =       2, jfastw  =       0
     tol     =   0.00000

NMR refinement options:
     iscale  =       0, noeskp  =       1, ipnlty  =       1, mxsub   =       1
     scalm   = 100.00000, pencut  =   0.10000, tausw   =   0.10000

--------------------------------------------------------------------------------
   3.  ATOMIC COORDINATES AND VELOCITIES
--------------------------------------------------------------------------------

ACE
 begin time read from input coords =  1000.000 ps

           Begin reading energy term weight changes/NMR restraints
 WEIGHT CHANGES:
                         ** No weight changes given **

 RESTRAINTS:
 Requested file redirections:
  DISANG    = run_174.disang
 Restraints will be read from file: run_174.disang
Here are comments from the DISANG input file:

                       Number of restraints read =     2

                  Done reading weight changes/NMR restraints

 Number of triangulated 3-point waters found:        0

--------------------------------------------------------------------------------
   4.  RESULTS
 NSTEP =    50000   TIME(PS) =    1100.000  TEMP(K) =   290.04  PRESS =     0.0
 Etot   =         8.7022  EKtot   =        22.7666  EPtot      =       -14.0644
 BOND   =         6.4108  ANGLE   =        12.8726  DIHED      =        20.2592
 1-4 NB =         5.1912  1-4 EEL =       115.0945  VDWAALS    =        -2.6835
 EELEC  =      -149.6292  EGB     =       -23.4849  RESTRAINT  =         0.0209
 ESURF=         1.8840
 EAMBER (non-restraint)  =       -14.0853
 ------------------------------------------------------------------------------

      A V E R A G E S   O V E R  500000 S T E P S

 NSTEP =   500000   TIME(PS) =    2000.000  TEMP(K) =   299.97  PRESS =     0.0
 Etot   =        11.5545  EKtot   =        23.5463  EPtot      =       -11.9918
 BOND   =         5.3970  ANGLE   =        14.2088  DIHED      =        19.6277
 1-4 NB =         5.2896  1-4 EEL =       116.9761  VDWAALS    =        -3.3173
 EELEC  =      -147.8063  EGB     =       -24.6098  RESTRAINT  =         0.2794
 ESURF=         1.9632
 EAMBER (non-restraint)  =       -12.2712
 ------------------------------------------------------------------------------

      R M S  F L U C T U A T I O N S

 NSTEP =   500000   TIME(PS) =    2000.000  TEMP(K) =    47.49  PRESS =     0.0
 Etot   =         5.3235  EKtot   =         3.7278  EPtot      =         3.7998
 BOND   =         1.9741  ANGLE   =         3.0492  DIHED      =         1.5784
 1-4 NB =         1.0283  1-4 EEL =         3.1045  VDWAALS    =         0.7079
 EELEC  =         3.3928  EGB     =         2.0813  RESTRAINT  =         0.4035
 ESURF=         0.0419
 EAMBER (non-restraint)  =         3.3962
 ------------------------------------------------------------------------------
